<?xml version="1.0" encoding="UTF-8"?>

<!-- generated on 2026-05-28T10:29:26.915450+07:00 by Eclipse SUMO netedit 1.27.0
<neteditConfiguration xmlns:xsi="http://www.w3.org/2001/XMLSchema-instance" xsi:noNamespaceSchemaLocation="http://sumo.dlr.de/xsd/neteditConfiguration.xsd">

    <input>
        <sumo-net-file value="D:\coding\ECO-RL(Q2)_chuan - Copy\maps\grid_3_3_intelligent_tls\grid_3_3_intelligent_tls.net.xml"/>
    </input>

    <output>
        <output-file value="D:\coding\ECO-RL(Q2)_chuan - Copy\maps\grid_3_3_intelligent_tls\grid_3_3_intelligent_tls.net.xml"/>
    </output>

    <processing>
        <geometry.min-radius.fix.railways value="false"/>
        <geometry.avoid-overlap value="false"/>
        <geometry.max-grade.fix value="false"/>
        <offset.disable-normalization value="true"/>
    </processing>

    <junctions>
        <no-turnarounds value="true"/>
    </junctions>

</neteditConfiguration>
-->

<net version="1.20" junctionCornerDetail="5" limitTurnSpeed="5.50" avoidOverlap="0" xmlns:xsi="http://www.w3.org/2001/XMLSchema-instance" xsi:noNamespaceSchemaLocation="http://sumo.dlr.de/xsd/net_file.xsd">

    <location netOffset="0.00,0.00" convBoundary="-826.06,-1709.77,2180.04,873.30" origBoundary="0.00,0.00,600.00,600.00" projParameter="!"/>

    <edge id=":A0_0" function="internal">
        <lane id=":A0_0_0" index="0" speed="6.52" length="9.06" shape="-366.14,-1301.43 -366.50,-1303.90 -367.56,-1305.66 -369.31,-1306.71 -371.76,-1307.05"/>
    </edge>
    <edge id=":A0_1" function="internal">
        <lane id=":A0_1_0" index="0" speed="13.89" length="27.35" shape="-362.94,-1301.44 -362.90,-1328.79"/>
    </edge>
    <edge id=":A0_2" function="internal">
        <lane id=":A0_2_0" index="0" speed="10.36" length="24.58" shape="-359.74,-1301.46 -358.81,-1308.13 -355.96,-1312.89 -351.20,-1315.74 -344.53,-1316.70"/>
    </edge>
    <edge id=":A0_3" function="internal">
        <lane id=":A0_3_0" index="0" speed="6.50" length="9.05" shape="-344.53,-1307.10 -346.99,-1306.75 -348.75,-1305.69 -349.80,-1303.94 -350.14,-1301.49"/>
    </edge>
    <edge id=":A0_4" function="internal">
        <lane id=":A0_4_0" index="0" speed="13.89" length="27.24" shape="-344.53,-1310.30 -371.77,-1310.25"/>
    </edge>
    <edge id=":A0_5" function="internal">
        <lane id=":A0_5_0" index="0" speed="10.35" length="24.59" shape="-344.53,-1313.50 -351.20,-1314.45 -355.96,-1317.32 -358.79,-1322.09 -359.70,-1328.77"/>
    </edge>
    <edge id=":A0_6" function="internal">
        <lane id=":A0_6_0" index="0" speed="6.49" length="9.03" shape="-350.10,-1328.71 -349.76,-1326.25 -348.72,-1324.50 -346.98,-1323.45 -344.53,-1323.10"/>
    </edge>
    <edge id=":A0_7" function="internal">
        <lane id=":A0_7_0" index="0" speed="13.89" length="27.25" shape="-353.30,-1328.73 -353.34,-1301.48"/>
    </edge>
    <edge id=":A0_8" function="internal">
        <lane id=":A0_8_0" index="0" speed="10.42" length="24.60" shape="-356.50,-1328.75 -357.49,-1322.08 -360.37,-1317.30 -365.13,-1314.43 -371.78,-1313.45"/>
    </edge>
    <edge id=":A0_9" function="internal">
        <lane id=":A0_9_0" index="0" speed="6.60" length="9.24" shape="-371.82,-1323.05 -369.33,-1323.42 -367.55,-1324.50 -366.47,-1326.30 -366.10,-1328.82"/>
    </edge>
    <edge id=":A0_10" function="internal">
        <lane id=":A0_10_0" index="0" speed="13.89" length="27.28" shape="-371.80,-1319.85 -344.53,-1319.90"/>
    </edge>
    <edge id=":A0_11" function="internal">
        <lane id=":A0_11_0" index="0" speed="10.37" length="24.54" shape="-371.79,-1316.65 -365.14,-1315.72 -360.38,-1312.88 -357.51,-1308.13 -356.54,-1301.47"/>
    </edge>
    <edge id=":A1_0" function="internal">
        <lane id=":A1_0_0" index="0" speed="6.69" length="9.46" shape="-343.23,-405.95 -345.75,-405.58 -347.56,-404.46 -348.68,-402.61 -349.08,-400.02"/>
    </edge>
    <edge id=":A1_1" function="internal">
        <lane id=":A1_1_0" index="0" speed="13.89" length="27.38" shape="-343.23,-409.15 -370.60,-409.15"/>
    </edge>
    <edge id=":A1_2" function="internal">
        <lane id=":A1_2_0" index="0" speed="10.37" length="24.52" shape="-343.23,-412.35 -349.87,-413.30 -354.62,-416.15 -357.47,-420.90 -358.42,-427.56"/>
    </edge>
    <edge id=":A1_3" function="internal">
        <lane id=":A1_3_0" index="0" speed="6.51" length="9.04" shape="-348.82,-427.56 -348.47,-425.10 -347.42,-423.35 -345.67,-422.30 -343.22,-421.95"/>
    </edge>
    <edge id=":A1_4" function="internal">
        <lane id=":A1_4_0" index="0" speed="13.89" length="27.48" shape="-352.02,-427.56 -352.28,-400.08"/>
    </edge>
    <edge id=":A1_5" function="internal">
        <lane id=":A1_5_0" index="0" speed="10.39" length="24.66" shape="-355.22,-427.56 -356.18,-420.90 -359.07,-416.15 -363.87,-413.30 -370.60,-412.35"/>
    </edge>
    <edge id=":A1_6" function="internal">
        <lane id=":A1_6_0" index="0" speed="6.55" length="9.17" shape="-370.60,-421.95 -368.07,-422.30 -366.27,-423.35 -365.18,-425.10 -364.82,-427.55"/>
    </edge>
    <edge id=":A1_7" function="internal">
        <lane id=":A1_7_0" index="0" speed="13.89" length="27.38" shape="-370.60,-418.75 -343.22,-418.75"/>
    </edge>
    <edge id=":A1_8" function="internal">
        <lane id=":A1_8_0" index="0" speed="10.34" length="24.73" shape="-370.60,-415.55 -363.88,-414.59 -359.12,-411.70 -356.32,-406.88 -355.48,-400.14"/>
    </edge>
    <edge id=":A1_9" function="internal">
        <lane id=":A1_9_0" index="0" speed="6.47" length="9.03" shape="-365.08,-400.32 -365.39,-402.79 -366.41,-404.55 -368.15,-405.60 -370.60,-405.95"/>
    </edge>
    <edge id=":A1_10" function="internal">
        <lane id=":A1_10_0" index="0" speed="13.89" length="27.29" shape="-361.88,-400.26 -361.62,-427.55"/>
    </edge>
    <edge id=":A1_11" function="internal">
        <lane id=":A1_11_0" index="0" speed="10.48" length="24.73" shape="-358.68,-400.20 -357.61,-406.92 -354.67,-411.71 -349.88,-414.59 -343.23,-415.55"/>
    </edge>
    <edge id=":A2_0" function="internal">
        <lane id=":A2_0_0" index="0" speed="6.51" length="9.03" shape="-345.89,483.68 -348.34,484.03 -350.09,485.08 -351.14,486.83 -351.50,489.28"/>
    </edge>
    <edge id=":A2_1" function="internal">
        <lane id=":A2_1_0" index="0" speed="13.89" length="27.33" shape="-345.89,480.48 -373.22,480.37"/>
    </edge>
    <edge id=":A2_2" function="internal">
        <lane id=":A2_2_0" index="0" speed="10.40" length="24.61" shape="-345.88,477.28 -352.52,476.33 -357.28,473.45 -360.14,468.67 -361.11,461.97"/>
    </edge>
    <edge id=":A2_3" function="internal">
        <lane id=":A2_3_0" index="0" speed="6.56" length="9.17" shape="-351.51,461.93 -351.15,464.45 -350.09,466.25 -348.34,467.32 -345.88,467.68"/>
    </edge>
    <edge id=":A2_4" function="internal">
        <lane id=":A2_4_0" index="0" speed="13.89" length="27.33" shape="-354.71,461.94 -354.70,489.27"/>
    </edge>
    <edge id=":A2_5" function="internal">
        <lane id=":A2_5_0" index="0" speed="10.35" length="24.65" shape="-357.91,461.96 -358.85,468.66 -361.70,473.43 -366.48,476.26 -373.19,477.17"/>
    </edge>
    <edge id=":A2_6" function="internal">
        <lane id=":A2_6_0" index="0" speed="6.48" length="9.03" shape="-373.11,467.57 -370.65,467.24 -368.90,466.20 -367.86,464.45 -367.51,461.99"/>
    </edge>
    <edge id=":A2_7" function="internal">
        <lane id=":A2_7_0" index="0" speed="13.89" length="27.26" shape="-373.14,470.77 -345.88,470.88"/>
    </edge>
    <edge id=":A2_8" function="internal">
        <lane id=":A2_8_0" index="0" speed="10.40" length="24.61" shape="-373.16,473.97 -366.47,474.97 -361.69,477.85 -358.84,482.62 -357.90,489.26"/>
    </edge>
    <edge id=":A2_9" function="internal">
        <lane id=":A2_9_0" index="0" speed="6.57" length="9.19" shape="-367.50,489.23 -367.85,486.77 -368.93,485.01 -370.72,483.94 -373.24,483.57"/>
    </edge>
    <edge id=":A2_10" function="internal">
        <lane id=":A2_10_0" index="0" speed="13.89" length="27.26" shape="-364.30,489.24 -364.31,461.98"/>
    </edge>
    <edge id=":A2_11" function="internal">
        <lane id=":A2_11_0" index="0" speed="10.37" length="24.49" shape="-361.10,489.25 -360.13,482.61 -357.27,477.87 -352.52,475.03 -345.88,474.08"/>
    </edge>
    <edge id=":B0_0" function="internal">
        <lane id=":B0_0_0" index="0" speed="6.54" length="9.12" shape="593.76,-1301.08 593.40,-1303.56 592.34,-1305.34 590.58,-1306.40 588.12,-1306.75"/>
    </edge>
    <edge id=":B0_1" function="internal">
        <lane id=":B0_1_0" index="0" speed="13.89" length="27.28" shape="596.96,-1301.09 596.93,-1328.37"/>
    </edge>
    <edge id=":B0_2" function="internal">
        <lane id=":B0_2_0" index="0" speed="10.36" length="24.56" shape="600.16,-1301.10 601.09,-1307.77 603.93,-1312.54 608.68,-1315.39 615.35,-1316.34"/>
    </edge>
    <edge id=":B0_3" function="internal">
        <lane id=":B0_3_0" index="0" speed="6.50" length="9.03" shape="615.35,-1306.74 612.89,-1306.39 611.15,-1305.34 610.10,-1303.59 609.76,-1301.14"/>
    </edge>
    <edge id=":B0_4" function="internal">
        <lane id=":B0_4_0" index="0" speed="13.89" length="27.23" shape="615.35,-1309.94 588.12,-1309.95"/>
    </edge>
    <edge id=":B0_5" function="internal">
        <lane id=":B0_5_0" index="0" speed="10.37" length="24.55" shape="615.35,-1313.14 608.68,-1314.10 603.92,-1316.95 601.07,-1321.71 600.13,-1328.36"/>
    </edge>
    <edge id=":B0_6" function="internal">
        <lane id=":B0_6_0" index="0" speed="6.51" length="9.05" shape="609.73,-1328.35 610.08,-1325.90 611.13,-1324.15 612.89,-1323.09 615.35,-1322.74"/>
    </edge>
    <edge id=":B0_7" function="internal">
        <lane id=":B0_7_0" index="0" speed="13.89" length="27.23" shape="606.53,-1328.35 606.56,-1301.13"/>
    </edge>
    <edge id=":B0_8" function="internal">
        <lane id=":B0_8_0" index="0" speed="10.37" length="24.52" shape="603.33,-1328.36 602.37,-1321.71 599.52,-1316.95 594.77,-1314.10 588.12,-1313.15"/>
    </edge>
    <edge id=":B0_9" function="internal">
        <lane id=":B0_9_0" index="0" speed="6.52" length="9.05" shape="588.13,-1322.75 590.58,-1323.11 592.33,-1324.16 593.38,-1325.92 593.73,-1328.38"/>
    </edge>
    <edge id=":B0_10" function="internal">
        <lane id=":B0_10_0" index="0" speed="13.89" length="27.23" shape="588.12,-1319.55 615.35,-1319.54"/>
    </edge>
    <edge id=":B0_11" function="internal">
        <lane id=":B0_11_0" index="0" speed="10.39" length="24.55" shape="588.12,-1316.35 594.77,-1315.40 599.52,-1312.54 602.39,-1307.78 603.36,-1301.12"/>
    </edge>
    <edge id=":B1_0" function="internal">
        <lane id=":B1_0_0" index="0" speed="6.69" length="9.46" shape="616.67,-405.59 614.15,-405.22 612.34,-404.11 611.22,-402.26 610.82,-399.67"/>
    </edge>
    <edge id=":B1_1" function="internal">
        <lane id=":B1_1_0" index="0" speed="13.89" length="27.37" shape="616.67,-408.79 589.30,-408.81"/>
    </edge>
    <edge id=":B1_2" function="internal">
        <lane id=":B1_2_0" index="0" speed="10.37" length="24.52" shape="616.67,-411.99 610.03,-412.95 605.28,-415.80 602.43,-420.55 601.48,-427.21"/>
    </edge>
    <edge id=":B1_3" function="internal">
        <lane id=":B1_3_0" index="0" speed="6.51" length="9.04" shape="611.08,-427.21 611.43,-424.75 612.48,-423.00 614.23,-421.95 616.68,-421.59"/>
    </edge>
    <edge id=":B1_4" function="internal">
        <lane id=":B1_4_0" index="0" speed="13.89" length="27.48" shape="607.88,-427.21 607.62,-399.73"/>
    </edge>
    <edge id=":B1_5" function="internal">
        <lane id=":B1_5_0" index="0" speed="10.39" length="24.66" shape="604.68,-427.21 603.72,-420.55 600.83,-415.80 596.03,-412.95 589.30,-412.01"/>
    </edge>
    <edge id=":B1_6" function="internal">
        <lane id=":B1_6_0" index="0" speed="6.55" length="9.17" shape="589.30,-421.61 591.83,-421.95 593.63,-423.00 594.72,-424.75 595.08,-427.20"/>
    </edge>
    <edge id=":B1_7" function="internal">
        <lane id=":B1_7_0" index="0" speed="13.89" length="27.37" shape="589.30,-418.41 616.68,-418.39"/>
    </edge>
    <edge id=":B1_8" function="internal">
        <lane id=":B1_8_0" index="0" speed="10.34" length="24.73" shape="589.30,-415.21 596.02,-414.24 600.78,-411.35 603.58,-406.53 604.42,-399.79"/>
    </edge>
    <edge id=":B1_9" function="internal">
        <lane id=":B1_9_0" index="0" speed="6.47" length="9.03" shape="594.82,-399.97 594.51,-402.44 593.49,-404.20 591.75,-405.25 589.30,-405.61"/>
    </edge>
    <edge id=":B1_10" function="internal">
        <lane id=":B1_10_0" index="0" speed="13.89" length="27.29" shape="598.02,-399.91 598.28,-427.20"/>
    </edge>
    <edge id=":B1_11" function="internal">
        <lane id=":B1_11_0" index="0" speed="10.48" length="24.73" shape="601.22,-399.85 602.29,-406.57 605.23,-411.36 610.02,-414.24 616.67,-415.19"/>
    </edge>
    <edge id=":B2_0" function="internal">
        <lane id=":B2_0_0" index="0" speed="6.55" length="9.11" shape="613.99,484.04 611.54,484.39 609.78,485.46 608.73,487.24 608.36,489.73"/>
    </edge>
    <edge id=":B2_1" function="internal">
        <lane id=":B2_1_0" index="0" speed="13.89" length="27.20" shape="613.99,480.84 586.79,480.83"/>
    </edge>
    <edge id=":B2_2" function="internal">
        <lane id=":B2_2_0" index="0" speed="10.39" length="24.53" shape="613.99,477.64 607.36,476.68 602.62,473.82 599.75,469.06 598.78,462.39"/>
    </edge>
    <edge id=":B2_3" function="internal">
        <lane id=":B2_3_0" index="0" speed="6.54" length="9.11" shape="608.38,462.34 608.74,464.83 609.79,466.61 611.55,467.68 613.99,468.04"/>
    </edge>
    <edge id=":B2_4" function="internal">
        <lane id=":B2_4_0" index="0" speed="13.89" length="27.35" shape="605.18,462.36 605.16,489.71"/>
    </edge>
    <edge id=":B2_5" function="internal">
        <lane id=":B2_5_0" index="0" speed="10.36" length="24.57" shape="601.98,462.37 601.05,469.05 598.21,473.82 593.46,476.67 586.79,477.63"/>
    </edge>
    <edge id=":B2_6" function="internal">
        <lane id=":B2_6_0" index="0" speed="6.50" length="9.03" shape="586.79,468.03 589.24,467.68 590.99,466.62 592.04,464.87 592.38,462.42"/>
    </edge>
    <edge id=":B2_7" function="internal">
        <lane id=":B2_7_0" index="0" speed="13.89" length="27.20" shape="586.79,471.23 613.99,471.24"/>
    </edge>
    <edge id=":B2_8" function="internal">
        <lane id=":B2_8_0" index="0" speed="10.36" length="24.57" shape="586.79,474.43 593.46,475.38 598.21,478.24 601.05,483.01 601.96,489.69"/>
    </edge>
    <edge id=":B2_9" function="internal">
        <lane id=":B2_9_0" index="0" speed="6.50" length="9.03" shape="592.36,489.64 592.03,487.18 590.98,485.43 589.24,484.38 586.79,484.03"/>
    </edge>
    <edge id=":B2_10" function="internal">
        <lane id=":B2_10_0" index="0" speed="13.89" length="27.25" shape="595.56,489.65 595.58,462.40"/>
    </edge>
    <edge id=":B2_11" function="internal">
        <lane id=":B2_11_0" index="0" speed="10.39" length="24.54" shape="598.76,489.67 599.75,483.00 602.61,478.24 607.36,475.39 613.99,474.44"/>
    </edge>
    <edge id=":C0_0" function="internal">
        <lane id=":C0_0_0" index="0" speed="6.60" length="9.27" shape="1780.18,-1299.86 1779.81,-1302.35 1778.72,-1304.13 1776.91,-1305.20 1774.37,-1305.57"/>
    </edge>
    <edge id=":C0_1" function="internal">
        <lane id=":C0_1_0" index="0" speed="13.89" length="27.33" shape="1783.38,-1299.87 1783.19,-1327.20"/>
    </edge>
    <edge id=":C0_2" function="internal">
        <lane id=":C0_2_0" index="0" speed="10.36" length="24.55" shape="1786.58,-1299.88 1787.51,-1306.55 1790.35,-1311.31 1795.10,-1314.17 1801.76,-1315.13"/>
    </edge>
    <edge id=":C0_3" function="internal">
        <lane id=":C0_3_0" index="0" speed="6.50" length="9.03" shape="1801.76,-1305.53 1799.31,-1305.18 1797.57,-1304.12 1796.52,-1302.37 1796.18,-1299.92"/>
    </edge>
    <edge id=":C0_4" function="internal">
        <lane id=":C0_4_0" index="0" speed="13.89" length="27.38" shape="1801.76,-1308.73 1774.38,-1308.77"/>
    </edge>
    <edge id=":C0_5" function="internal">
        <lane id=":C0_5_0" index="0" speed="10.44" length="24.69" shape="1801.76,-1311.93 1795.09,-1312.88 1790.31,-1315.75 1787.41,-1320.53 1786.39,-1327.23"/>
    </edge>
    <edge id=":C0_6" function="internal">
        <lane id=":C0_6_0" index="0" speed="6.62" length="9.31" shape="1795.99,-1327.33 1796.37,-1324.79 1797.46,-1322.98 1799.26,-1321.89 1801.76,-1321.53"/>
    </edge>
    <edge id=":C0_7" function="internal">
        <lane id=":C0_7_0" index="0" speed="13.89" length="27.39" shape="1792.79,-1327.30 1792.98,-1299.91"/>
    </edge>
    <edge id=":C0_8" function="internal">
        <lane id=":C0_8_0" index="0" speed="10.34" length="24.67" shape="1789.59,-1327.27 1788.70,-1320.55 1785.87,-1315.77 1781.10,-1312.90 1774.39,-1311.97"/>
    </edge>
    <edge id=":C0_9" function="internal">
        <lane id=":C0_9_0" index="0" speed="6.48" length="9.03" shape="1774.43,-1321.57 1776.88,-1321.91 1778.63,-1322.96 1779.66,-1324.71 1779.99,-1327.17"/>
    </edge>
    <edge id=":C0_10" function="internal">
        <lane id=":C0_10_0" index="0" speed="13.89" length="27.34" shape="1774.41,-1318.37 1801.76,-1318.33"/>
    </edge>
    <edge id=":C0_11" function="internal">
        <lane id=":C0_11_0" index="0" speed="10.42" length="24.67" shape="1774.40,-1315.17 1781.11,-1314.19 1785.91,-1311.32 1788.80,-1306.56 1789.78,-1299.90"/>
    </edge>
    <edge id=":C1_0" function="internal">
        <lane id=":C1_0_0" index="0" speed="6.67" length="9.41" shape="1803.07,-404.35 1800.56,-403.99 1798.75,-402.88 1797.64,-401.04 1797.24,-398.47"/>
    </edge>
    <edge id=":C1_1" function="internal">
        <lane id=":C1_1_0" index="0" speed="13.89" length="27.34" shape="1803.08,-407.55 1775.73,-407.62"/>
    </edge>
    <edge id=":C1_2" function="internal">
        <lane id=":C1_2_0" index="0" speed="10.37" length="24.54" shape="1803.08,-410.75 1796.44,-411.71 1791.69,-414.57 1788.85,-419.34 1787.90,-426.00"/>
    </edge>
    <edge id=":C1_3" function="internal">
        <lane id=":C1_3_0" index="0" speed="6.52" length="9.07" shape="1797.50,-426.01 1797.85,-423.54 1798.90,-421.77 1800.65,-420.71 1803.09,-420.35"/>
    </edge>
    <edge id=":C1_4" function="internal">
        <lane id=":C1_4_0" index="0" speed="13.89" length="27.48" shape="1794.30,-426.01 1794.04,-398.53"/>
    </edge>
    <edge id=":C1_5" function="internal">
        <lane id=":C1_5_0" index="0" speed="10.38" length="24.65" shape="1791.10,-426.01 1790.14,-419.34 1787.26,-414.59 1782.46,-411.75 1775.74,-410.82"/>
    </edge>
    <edge id=":C1_6" function="internal">
        <lane id=":C1_6_0" index="0" speed="6.53" length="9.13" shape="1775.77,-420.42 1778.28,-420.76 1780.07,-421.80 1781.14,-423.55 1781.50,-426.00"/>
    </edge>
    <edge id=":C1_7" function="internal">
        <lane id=":C1_7_0" index="0" speed="13.89" length="27.33" shape="1775.76,-417.22 1803.09,-417.15"/>
    </edge>
    <edge id=":C1_8" function="internal">
        <lane id=":C1_8_0" index="0" speed="10.34" length="24.69" shape="1775.75,-414.02 1782.46,-413.03 1787.21,-410.13 1790.00,-405.32 1790.84,-398.59"/>
    </edge>
    <edge id=":C1_9" function="internal">
        <lane id=":C1_9_0" index="0" speed="6.47" length="9.03" shape="1781.24,-398.77 1780.93,-401.23 1779.91,-403.00 1778.18,-404.06 1775.72,-404.42"/>
    </edge>
    <edge id=":C1_10" function="internal">
        <lane id=":C1_10_0" index="0" speed="13.89" length="27.29" shape="1784.44,-398.71 1784.70,-426.00"/>
    </edge>
    <edge id=":C1_11" function="internal">
        <lane id=":C1_11_0" index="0" speed="10.47" length="24.70" shape="1787.64,-398.65 1788.71,-405.35 1791.65,-410.14 1796.44,-413.00 1803.09,-413.95"/>
    </edge>
    <edge id=":C2_0" function="internal">
        <lane id=":C2_0_0" index="0" speed="6.60" length="9.27" shape="1778.92,490.95 1778.55,488.45 1777.47,486.66 1775.66,485.58 1773.15,485.21"/>
    </edge>
    <edge id=":C2_1" function="internal">
        <lane id=":C2_1_0" index="0" speed="13.89" length="27.33" shape="1782.12,490.94 1781.98,463.60"/>
    </edge>
    <edge id=":C2_2" function="internal">
        <lane id=":C2_2_0" index="0" speed="10.35" length="24.58" shape="1785.32,490.92 1786.25,484.24 1789.09,479.48 1793.84,476.62 1800.52,475.67"/>
    </edge>
    <edge id=":C2_3" function="internal">
        <lane id=":C2_3_0" index="0" speed="6.50" length="9.03" shape="1800.51,485.27 1798.05,485.62 1796.31,486.67 1795.26,488.42 1794.92,490.88"/>
    </edge>
    <edge id=":C2_4" function="internal">
        <lane id=":C2_4_0" index="0" speed="13.89" length="27.35" shape="1800.51,482.07 1773.16,482.01"/>
    </edge>
    <edge id=":C2_5" function="internal">
        <lane id=":C2_5_0" index="0" speed="10.42" length="24.65" shape="1800.51,478.87 1793.84,477.91 1789.06,475.04 1786.17,470.27 1785.18,463.58"/>
    </edge>
    <edge id=":C2_6" function="internal">
        <lane id=":C2_6_0" index="0" speed="6.59" length="9.24" shape="1794.78,463.53 1795.15,466.04 1796.23,467.84 1798.02,468.91 1800.52,469.27"/>
    </edge>
    <edge id=":C2_7" function="internal">
        <lane id=":C2_7_0" index="0" speed="13.89" length="27.34" shape="1791.58,463.55 1791.72,490.89"/>
    </edge>
    <edge id=":C2_8" function="internal">
        <lane id=":C2_8_0" index="0" speed="10.35" length="24.61" shape="1788.38,463.57 1787.47,470.26 1784.62,475.03 1779.86,477.88 1773.17,478.81"/>
    </edge>
    <edge id=":C2_9" function="internal">
        <lane id=":C2_9_0" index="0" speed="6.49" length="9.03" shape="1773.20,469.21 1775.66,468.87 1777.40,467.82 1778.45,466.07 1778.78,463.62"/>
    </edge>
    <edge id=":C2_10" function="internal">
        <lane id=":C2_10_0" index="0" speed="13.89" length="27.33" shape="1773.19,472.41 1800.52,472.47"/>
    </edge>
    <edge id=":C2_11" function="internal">
        <lane id=":C2_11_0" index="0" speed="10.42" length="24.66" shape="1773.18,475.61 1779.87,476.59 1784.65,479.46 1787.54,484.24 1788.52,490.91"/>
    </edge>

    <edge id="-E10" from="J10" to="B0" priority="-1">
        <lane id="-E10_0" index="0" speed="13.89" length="146.33" shape="609.98,-1474.68 609.73,-1328.35"/>
        <lane id="-E10_1" index="1" speed="13.89" length="146.33" shape="606.78,-1474.68 606.53,-1328.35"/>
        <lane id="-E10_2" index="2" speed="13.89" length="146.33" shape="603.58,-1474.69 603.33,-1328.36"/>
    </edge>
    <edge id="-E11" from="J11" to="A0" priority="-1">
        <lane id="-E11_0" index="0" speed="13.89" length="381.02" shape="-347.52,-1709.72 -350.10,-1328.71"/>
        <lane id="-E11_1" index="1" speed="13.89" length="381.02" shape="-350.72,-1709.74 -353.30,-1328.73"/>
        <lane id="-E11_2" index="2" speed="13.89" length="381.02" shape="-353.92,-1709.76 -356.50,-1328.75"/>
    </edge>
    <edge id="-E12" from="J12" to="A0" priority="-1">
        <lane id="-E12_0" index="0" speed="13.89" length="386.09" shape="-757.91,-1321.73 -371.82,-1323.05"/>
        <lane id="-E12_1" index="1" speed="13.89" length="386.09" shape="-757.90,-1318.53 -371.80,-1319.85"/>
        <lane id="-E12_2" index="2" speed="13.89" length="386.09" shape="-757.89,-1315.33 -371.79,-1316.65"/>
    </edge>
    <edge id="-E13" from="J13" to="A1" priority="-1">
        <lane id="-E13_0" index="0" speed="13.89" length="455.46" shape="-826.06,-422.10 -370.60,-421.95"/>
        <lane id="-E13_1" index="1" speed="13.89" length="455.46" shape="-826.06,-418.90 -370.60,-418.75"/>
        <lane id="-E13_2" index="2" speed="13.89" length="455.46" shape="-826.06,-415.70 -370.60,-415.55"/>
    </edge>
    <edge id="-E14" from="J14" to="A2" priority="-1">
        <lane id="-E14_0" index="0" speed="13.89" length="423.32" shape="-796.41,464.09 -373.11,467.57"/>
        <lane id="-E14_1" index="1" speed="13.89" length="423.32" shape="-796.44,467.29 -373.14,470.77"/>
        <lane id="-E14_2" index="2" speed="13.89" length="423.32" shape="-796.47,470.49 -373.16,473.97"/>
    </edge>
    <edge id="-E8" from="J8" to="C0" priority="-1">
        <lane id="-E8_0" index="0" speed="13.89" length="149.52" shape="1794.45,-1476.84 1795.99,-1327.33"/>
        <lane id="-E8_1" index="1" speed="13.89" length="149.52" shape="1791.25,-1476.81 1792.79,-1327.30"/>
        <lane id="-E8_2" index="2" speed="13.89" length="149.52" shape="1788.05,-1476.78 1789.59,-1327.27"/>
    </edge>
    <edge id="A0A1" from="A0" to="A1" priority="-1" shape="-358.19,-1315.10 -356.96,-977.39 -356.82,-413.95">
        <lane id="A0A1_0" index="0" speed="13.89" length="873.92" shape="-350.14,-1301.49 -348.96,-977.41 -348.82,-427.56"/>
        <lane id="A0A1_1" index="1" speed="13.89" length="873.92" shape="-353.34,-1301.48 -352.16,-977.40 -352.02,-427.56"/>
        <lane id="A0A1_2" index="2" speed="13.89" length="873.92" shape="-356.54,-1301.47 -355.36,-977.39 -355.22,-427.56"/>
    </edge>
    <edge id="A0B0" from="A0" to="B0" priority="-1">
        <lane id="A0B0_0" index="0" speed="13.89" length="932.65" shape="-344.53,-1323.10 588.13,-1322.75"/>
        <lane id="A0B0_1" index="1" speed="13.89" length="932.65" shape="-344.53,-1319.90 588.12,-1319.55"/>
        <lane id="A0B0_2" index="2" speed="13.89" length="932.65" shape="-344.53,-1316.70 588.12,-1316.35"/>
    </edge>
    <edge id="A1A0" from="A1" to="A0" priority="-1" shape="-356.82,-413.95 -356.96,-977.39 -358.19,-1315.10">
        <lane id="A1A0_0" index="0" speed="13.89" length="873.89" shape="-364.82,-427.55 -364.96,-977.37 -366.14,-1301.43"/>
        <lane id="A1A0_1" index="1" speed="13.89" length="873.89" shape="-361.62,-427.55 -361.76,-977.38 -362.94,-1301.44"/>
        <lane id="A1A0_2" index="2" speed="13.89" length="873.89" shape="-358.42,-427.56 -358.56,-977.39 -359.74,-1301.46"/>
    </edge>
    <edge id="A1A2" from="A1" to="A2" priority="-1" shape="-356.82,-413.95 -361.93,-146.07 -359.46,475.68">
        <lane id="A1A2_0" index="0" speed="13.89" length="862.07" shape="-349.08,-400.02 -353.93,-146.01 -351.51,461.93"/>
        <lane id="A1A2_1" index="1" speed="13.89" length="862.07" shape="-352.28,-400.08 -357.13,-146.03 -354.71,461.94"/>
        <lane id="A1A2_2" index="2" speed="13.89" length="862.07" shape="-355.48,-400.14 -360.33,-146.06 -357.91,461.96"/>
    </edge>
    <edge id="A1B1" from="A1" to="B1" priority="-1">
        <lane id="A1B1_0" index="0" speed="13.89" length="932.52" shape="-343.22,-421.95 589.30,-421.61"/>
        <lane id="A1B1_1" index="1" speed="13.89" length="932.52" shape="-343.22,-418.75 589.30,-418.41"/>
        <lane id="A1B1_2" index="2" speed="13.89" length="932.52" shape="-343.23,-415.55 589.30,-415.21"/>
    </edge>
    <edge id="A2A1" from="A2" to="A1" priority="-1" shape="-359.46,475.68 -361.93,-146.07 -356.82,-413.95">
        <lane id="A2A1_0" index="0" speed="13.89" length="862.29" shape="-367.51,461.99 -369.93,-146.13 -365.08,-400.32"/>
        <lane id="A2A1_1" index="1" speed="13.89" length="862.29" shape="-364.31,461.98 -366.73,-146.11 -361.88,-400.26"/>
        <lane id="A2A1_2" index="2" speed="13.89" length="862.29" shape="-361.11,461.97 -363.53,-146.08 -358.68,-400.20"/>
    </edge>
    <edge id="A2A3" from="A2" to="A3" priority="-1">
        <lane id="A2A3_0" index="0" speed="13.89" length="384.04" shape="-351.50,489.28 -352.57,873.32"/>
        <lane id="A2A3_1" index="1" speed="13.89" length="384.04" shape="-354.70,489.27 -355.77,873.31"/>
        <lane id="A2A3_2" index="2" speed="13.89" length="384.04" shape="-357.90,489.26 -358.97,873.30"/>
    </edge>
    <edge id="A2B2" from="A2" to="B2" priority="-1">
        <lane id="A2B2_0" index="0" speed="13.89" length="932.67" shape="-345.88,467.68 586.79,468.03"/>
        <lane id="A2B2_1" index="1" speed="13.89" length="932.67" shape="-345.88,470.88 586.79,471.23"/>
        <lane id="A2B2_2" index="2" speed="13.89" length="932.67" shape="-345.88,474.08 586.79,474.43"/>
    </edge>
    <edge id="A3A2" from="A3" to="A2" priority="-1">
        <lane id="A3A2_0" index="0" speed="13.89" length="384.04" shape="-368.57,873.28 -367.50,489.23"/>
        <lane id="A3A2_1" index="1" speed="13.89" length="384.04" shape="-365.37,873.29 -364.30,489.24"/>
        <lane id="A3A2_2" index="2" speed="13.89" length="384.04" shape="-362.17,873.30 -361.10,489.25"/>
    </edge>
    <edge id="B0A0" from="B0" to="A0" priority="-1">
        <lane id="B0A0_0" index="0" speed="13.89" length="932.65" shape="588.12,-1306.75 -344.53,-1307.10"/>
        <lane id="B0A0_1" index="1" speed="13.89" length="932.65" shape="588.12,-1309.95 -344.53,-1310.30"/>
        <lane id="B0A0_2" index="2" speed="13.89" length="932.65" shape="588.12,-1313.15 -344.53,-1313.50"/>
    </edge>
    <edge id="B0B1" from="B0" to="B1" priority="-1" shape="601.71,-1314.75 602.93,-980.90 603.08,-413.60">
        <lane id="B0B1_0" index="0" speed="13.89" length="873.92" shape="609.76,-1301.14 610.93,-980.92 611.08,-427.21"/>
        <lane id="B0B1_1" index="1" speed="13.89" length="873.92" shape="606.56,-1301.13 607.73,-980.91 607.88,-427.21"/>
        <lane id="B0B1_2" index="2" speed="13.89" length="873.92" shape="603.36,-1301.12 604.53,-980.90 604.68,-427.21"/>
    </edge>
    <edge id="B0C0" from="B0" to="C0" priority="-1" shape="601.71,-1314.75 1554.06,-1314.30 1788.13,-1313.52">
        <lane id="B0C0_0" index="0" speed="13.89" length="1159.06" shape="615.35,-1322.74 1554.08,-1322.30 1774.43,-1321.57"/>
        <lane id="B0C0_1" index="1" speed="13.89" length="1159.06" shape="615.35,-1319.54 1554.07,-1319.10 1774.41,-1318.37"/>