<?xml version="1.0" encoding="UTF-8"?>

<!-- generated on 2026-03-30T17:05:21.416611+07:00 by Eclipse SUMO netconvert 1.26.0
<netconvertConfiguration xmlns:xsi="http://www.w3.org/2001/XMLSchema-instance" xsi:noNamespaceSchemaLocation="http://sumo.dlr.de/xsd/netconvertConfiguration.xsd">

    <input>
        <node-files value="plain_grid.nod.xml"/>
        <edge-files value="plain_grid.edg.xml"/>
        <connection-files value="plain_grid_12.con.xml"/>
        <tllogic-files value="plain_grid_12.tll.xml"/>
    </input>

    <output>
        <output-file value="grid_3_3_intelligent_tls_12link.net.xml"/>
    </output>

    <processing>
        <offset.disable-normalization value="true"/>
    </processing>

    <junctions>
        <no-turnarounds value="true"/>
        <junctions.corner-detail value="5"/>
        <junctions.limit-turn-speed value="5.50"/>
    </junctions>

</netconvertConfiguration>
-->

<net version="1.20" junctionCornerDetail="5" limitTurnSpeed="5.50" xmlns:xsi="http://www.w3.org/2001/XMLSchema-instance" xsi:noNamespaceSchemaLocation="http://sumo.dlr.de/xsd/net_file.xsd">

    <location netOffset="0.00,0.00" convBoundary="-568.48,-425.04,789.31,770.51" origBoundary="0.00,0.00,600.00,600.00" projParameter="!"/>

    <edge id=":A0_0" function="internal">
        <lane id=":A0_0_0" index="0" speed="6.59" length="9.17" shape="-361.90,-247.07 -362.26,-249.58 -363.31,-251.38 -365.06,-252.48 -367.51,-252.87"/>
    </edge>
    <edge id=":A0_1" function="internal">
        <lane id=":A0_1_0" index="0" speed="13.89" length="27.64" shape="-358.70,-247.08 -358.37,-274.72"/>
    </edge>
    <edge id=":A0_2" function="internal">
        <lane id=":A0_2_0" index="0" speed="10.41" length="24.75" shape="-355.50,-247.09 -354.56,-253.75 -351.67,-258.51 -346.84,-261.37 -340.06,-262.34"/>
    </edge>
    <edge id=":A0_3" function="internal">
        <lane id=":A0_3_0" index="0" speed="6.58" length="9.27" shape="-340.03,-252.74 -342.61,-252.39 -344.44,-251.33 -345.54,-249.58 -345.90,-247.13"/>
    </edge>
    <edge id=":A0_4" function="internal">
        <lane id=":A0_4_0" index="0" speed="13.89" length="27.43" shape="-340.04,-255.94 -367.47,-256.07"/>
    </edge>
    <edge id=":A0_5" function="internal">
        <lane id=":A0_5_0" index="0" speed="10.32" length="24.86" shape="-340.05,-259.14 -346.82,-260.09 -351.60,-262.99 -354.39,-267.84 -355.18,-274.63"/>
    </edge>
    <edge id=":A0_6" function="internal">
        <lane id=":A0_6_0" index="0" speed="6.44" length="9.03" shape="-345.58,-274.37 -345.29,-271.90 -344.28,-270.14 -342.54,-269.09 -340.08,-268.74"/>
    </edge>
    <edge id=":A0_7" function="internal">
        <lane id=":A0_7_0" index="0" speed="13.89" length="27.35" shape="-348.78,-274.46 -349.10,-247.11"/>
    </edge>
    <edge id=":A0_8" function="internal">
        <lane id=":A0_8_0" index="0" speed="10.46" length="24.70" shape="-351.98,-274.55 -353.10,-267.79 -356.05,-262.99 -360.83,-260.15 -367.43,-259.27"/>
    </edge>
    <edge id=":A0_9" function="internal">
        <lane id=":A0_9_0" index="0" speed="6.65" length="9.38" shape="-367.31,-268.87 -364.86,-269.21 -363.09,-270.32 -361.99,-272.18 -361.57,-274.80"/>
    </edge>
    <edge id=":A0_10" function="internal">
        <lane id=":A0_10_0" index="0" speed="13.89" length="27.28" shape="-367.35,-265.67 -340.07,-265.54"/>
    </edge>
    <edge id=":A0_11" function="internal">
        <lane id=":A0_11_0" index="0" speed="10.42" length="24.47" shape="-367.39,-262.47 -360.81,-261.44 -356.10,-258.53 -353.26,-253.75 -352.30,-247.10"/>
    </edge>
    <edge id=":A1_0" function="internal">
        <lane id=":A1_0_0" index="0" speed="6.71" length="9.51" shape="-338.96,122.51 -341.49,122.89 -343.32,124.01 -344.43,125.87 -344.84,128.48"/>
    </edge>
    <edge id=":A1_1" function="internal">
        <lane id=":A1_1_0" index="0" speed="13.89" length="27.39" shape="-338.97,119.31 -366.36,119.34"/>
    </edge>
    <edge id=":A1_2" function="internal">
        <lane id=":A1_2_0" index="0" speed="10.37" length="24.55" shape="-338.98,116.11 -345.63,115.18 -350.39,112.33 -353.26,107.58 -354.23,100.91"/>
    </edge>
    <edge id=":A1_3" function="internal">
        <lane id=":A1_3_0" index="0" speed="6.52" length="9.07" shape="-344.63,100.88 -344.27,103.35 -343.21,105.11 -341.46,106.16 -339.01,106.51"/>
    </edge>
    <edge id=":A1_4" function="internal">
        <lane id=":A1_4_0" index="0" speed="13.89" length="27.53" shape="-347.83,100.89 -348.04,128.42"/>
    </edge>
    <edge id=":A1_5" function="internal">
        <lane id=":A1_5_0" index="0" speed="10.38" length="24.67" shape="-351.03,100.90 -351.97,107.57 -354.83,112.34 -359.63,115.19 -366.36,116.14"/>
    </edge>
    <edge id=":A1_6" function="internal">
        <lane id=":A1_6_0" index="0" speed="6.53" length="9.14" shape="-366.35,106.54 -363.84,106.19 -362.05,105.14 -360.98,103.39 -360.63,100.94"/>
    </edge>
    <edge id=":A1_7" function="internal">
        <lane id=":A1_7_0" index="0" speed="13.89" length="27.35" shape="-366.35,109.74 -339.00,109.71"/>
    </edge>
    <edge id=":A1_8" function="internal">
        <lane id=":A1_8_0" index="0" speed="10.34" length="24.72" shape="-366.36,112.94 -359.63,113.91 -354.87,116.80 -352.08,121.62 -351.24,128.36"/>
    </edge>
    <edge id=":A1_9" function="internal">
        <lane id=":A1_9_0" index="0" speed="6.47" length="9.03" shape="-360.84,128.17 -361.15,125.71 -362.17,123.95 -363.91,122.89 -366.36,122.54"/>
    </edge>
    <edge id=":A1_10" function="internal">
        <lane id=":A1_10_0" index="0" speed="13.89" length="27.31" shape="-357.64,128.23 -357.43,100.93"/>
    </edge>
    <edge id=":A1_11" function="internal">
        <lane id=":A1_11_0" index="0" speed="10.50" length="24.75" shape="-354.44,128.29 -353.37,121.58 -350.43,116.78 -345.64,113.89 -338.99,112.91"/>
    </edge>
    <edge id=":A2_0" function="internal">
        <lane id=":A2_0_0" index="0" speed="6.58" length="9.23" shape="-345.62,483.64 -348.18,483.99 -350.00,485.05 -351.10,486.80 -351.47,489.25"/>
    </edge>
    <edge id=":A2_1" function="internal">
        <lane id=":A2_1_0" index="0" speed="13.89" length="27.39" shape="-345.63,480.44 -373.02,480.34"/>
    </edge>
    <edge id=":A2_2" function="internal">
        <lane id=":A2_2_0" index="0" speed="10.33" length="24.77" shape="-345.64,477.24 -352.38,476.29 -357.15,473.41 -359.96,468.59 -360.80,461.84"/>
    </edge>
    <edge id=":A2_3" function="internal">
        <lane id=":A2_3_0" index="0" speed="6.46" length="9.03" shape="-351.20,462.02 -350.89,464.48 -349.87,466.24 -348.13,467.29 -345.67,467.64"/>
    </edge>
    <edge id=":A2_4" function="internal">
        <lane id=":A2_4_0" index="0" speed="13.89" length="27.29" shape="-354.40,461.96 -354.67,489.25"/>
    </edge>
    <edge id=":A2_5" function="internal">
        <lane id=":A2_5_0" index="0" speed="10.43" length="24.66" shape="-357.60,461.90 -358.67,468.62 -361.59,473.41 -366.37,476.25 -372.99,477.14"/>
    </edge>
    <edge id=":A2_6" function="internal">
        <lane id=":A2_6_0" index="0" speed="6.61" length="9.28" shape="-372.89,467.54 -370.44,467.20 -368.68,466.11 -367.59,464.29 -367.20,461.71"/>
    </edge>
    <edge id=":A2_7" function="internal">
        <lane id=":A2_7_0" index="0" speed="13.89" length="27.27" shape="-372.93,470.74 -345.66,470.84"/>
    </edge>
    <edge id=":A2_8" function="internal">
        <lane id=":A2_8_0" index="0" speed="10.39" length="24.46" shape="-372.96,473.94 -366.35,474.96 -361.64,477.85 -358.81,482.61 -357.87,489.25"/>
    </edge>
    <edge id=":A2_9" function="internal">
        <lane id=":A2_9_0" index="0" speed="6.55" length="9.08" shape="-367.47,489.24 -367.81,486.77 -368.86,485.00 -370.61,483.92 -373.05,483.54"/>
    </edge>
    <edge id=":A2_10" function="internal">
        <lane id=":A2_10_0" index="0" speed="13.89" length="27.47" shape="-364.27,489.24 -364.00,461.77"/>
    </edge>
    <edge id=":A2_11" function="internal">
        <lane id=":A2_11_0" index="0" speed="10.41" length="24.68" shape="-361.07,489.24 -360.10,482.61 -357.21,477.86 -352.39,475.00 -345.65,474.04"/>
    </edge>
    <edge id=":B0_0" function="internal">
        <lane id=":B0_0_0" index="0" speed="6.53" length="9.09" shape="21.15,-248.23 20.79,-250.71 19.73,-252.48 17.98,-253.54 15.53,-253.89"/>
    </edge>
    <edge id=":B0_1" function="internal">
        <lane id=":B0_1_0" index="0" speed="13.89" length="27.28" shape="24.35,-248.25 24.32,-275.52"/>
    </edge>
    <edge id=":B0_2" function="internal">
        <lane id=":B0_2_0" index="0" speed="10.35" length="24.59" shape="27.55,-248.26 28.48,-254.94 31.33,-259.70 36.09,-262.55 42.77,-263.48"/>
    </edge>
    <edge id=":B0_3" function="internal">
        <lane id=":B0_3_0" index="0" speed="6.49" length="9.03" shape="42.74,-253.88 40.29,-253.54 38.54,-252.50 37.49,-250.75 37.15,-248.29"/>
    </edge>
    <edge id=":B0_4" function="internal">
        <lane id=":B0_4_0" index="0" speed="13.89" length="27.23" shape="42.75,-257.08 15.52,-257.09"/>
    </edge>
    <edge id=":B0_5" function="internal">
        <lane id=":B0_5_0" index="0" speed="10.38" length="24.56" shape="42.76,-260.28 36.09,-261.26 31.32,-264.12 28.47,-268.87 27.52,-275.52"/>
    </edge>
    <edge id=":B0_6" function="internal">
        <lane id=":B0_6_0" index="0" speed="6.53" length="9.10" shape="37.12,-275.50 37.47,-273.05 38.54,-271.30 40.31,-270.24 42.79,-269.88"/>
    </edge>
    <edge id=":B0_7" function="internal">
        <lane id=":B0_7_0" index="0" speed="13.89" length="27.23" shape="33.92,-275.51 33.95,-248.28"/>
    </edge>
    <edge id=":B0_8" function="internal">
        <lane id=":B0_8_0" index="0" speed="10.38" length="24.52" shape="30.72,-275.51 29.76,-268.87 26.91,-264.12 22.16,-261.26 15.51,-260.29"/>
    </edge>
    <edge id=":B0_9" function="internal">
        <lane id=":B0_9_0" index="0" speed="6.54" length="9.09" shape="15.48,-269.89 17.94,-270.25 19.71,-271.31 20.77,-273.07 21.12,-275.53"/>
    </edge>
    <edge id=":B0_10" function="internal">
        <lane id=":B0_10_0" index="0" speed="13.89" length="27.29" shape="15.49,-266.69 42.78,-266.68"/>
    </edge>
    <edge id=":B0_11" function="internal">
        <lane id=":B0_11_0" index="0" speed="10.38" length="24.57" shape="15.50,-263.49 22.15,-262.55 26.91,-259.71 29.78,-254.94 30.75,-248.27"/>
    </edge>
    <edge id=":B1_0" function="internal">
        <lane id=":B1_0_0" index="0" speed="6.66" length="9.39" shape="43.98,121.37 41.49,121.73 39.70,122.84 38.61,124.69 38.21,127.29"/>
    </edge>
    <edge id=":B1_1" function="internal">
        <lane id=":B1_1_0" index="0" speed="13.89" length="27.32" shape="43.99,118.17 16.67,118.16"/>
    </edge>
    <edge id=":B1_2" function="internal">
        <lane id=":B1_2_0" index="0" speed="10.39" length="24.49" shape="44.00,114.97 37.38,113.99 32.64,111.13 29.79,106.37 28.82,99.72"/>
    </edge>
    <edge id=":B1_3" function="internal">
        <lane id=":B1_3_0" index="0" speed="6.54" length="9.09" shape="38.42,99.69 38.78,102.16 39.83,103.94 41.58,105.00 44.03,105.37"/>
    </edge>
    <edge id=":B1_4" function="internal">
        <lane id=":B1_4_0" index="0" speed="13.89" length="27.53" shape="35.22,99.70 35.01,127.23"/>
    </edge>
    <edge id=":B1_5" function="internal">
        <lane id=":B1_5_0" index="0" speed="10.40" length="24.69" shape="32.02,99.71 31.08,106.37 28.21,111.13 23.40,113.99 16.66,114.96"/>
    </edge>
    <edge id=":B1_6" function="internal">
        <lane id=":B1_6_0" index="0" speed="6.56" length="9.20" shape="16.63,105.36 19.17,105.01 20.98,103.95 22.07,102.20 22.42,99.75"/>
    </edge>
    <edge id=":B1_7" function="internal">
        <lane id=":B1_7_0" index="0" speed="13.89" length="27.38" shape="16.64,108.56 44.02,108.57"/>
    </edge>
    <edge id=":B1_8" function="internal">
        <lane id=":B1_8_0" index="0" speed="10.33" length="24.77" shape="16.65,111.76 23.39,112.71 28.16,115.59 30.97,120.41 31.81,127.16"/>
    </edge>
    <edge id=":B1_9" function="internal">
        <lane id=":B1_9_0" index="0" speed="6.46" length="9.03" shape="22.21,126.98 21.90,124.52 20.88,122.76 19.14,121.71 16.68,121.36"/>
    </edge>
    <edge id=":B1_10" function="internal">
        <lane id=":B1_10_0" index="0" speed="13.89" length="27.31" shape="25.41,127.04 25.62,99.73"/>
    </edge>
    <edge id=":B1_11" function="internal">
        <lane id=":B1_11_0" index="0" speed="10.46" length="24.70" shape="28.61,127.10 29.68,120.37 32.60,115.57 37.38,112.70 44.01,111.77"/>
    </edge>
    <edge id=":B2_0" function="internal">
        <lane id=":B2_0_0" index="0" speed="6.59" length="9.26" shape="37.32,482.50 34.79,482.84 32.98,483.91 31.89,485.69 31.51,488.18"/>
    </edge>
    <edge id=":B2_1" function="internal">
        <lane id=":B2_1_0" index="0" speed="13.89" length="27.41" shape="37.33,479.30 9.92,479.29"/>
    </edge>
    <edge id=":B2_2" function="internal">
        <lane id=":B2_2_0" index="0" speed="10.34" length="24.69" shape="37.34,476.10 30.63,475.11 25.88,472.21 23.09,467.40 22.25,460.67"/>
    </edge>
    <edge id=":B2_3" function="internal">
        <lane id=":B2_3_0" index="0" speed="6.47" length="9.03" shape="31.85,460.85 32.16,463.31 33.18,465.08 34.91,466.14 37.37,466.50"/>
    </edge>
    <edge id=":B2_4" function="internal">
        <lane id=":B2_4_0" index="0" speed="13.89" length="27.37" shape="28.65,460.79 28.31,488.16"/>
    </edge>
    <edge id=":B2_5" function="internal">
        <lane id=":B2_5_0" index="0" speed="10.51" length="24.80" shape="25.45,460.73 24.37,467.43 21.42,472.23 16.60,475.12 9.91,476.09"/>
    </edge>
    <edge id=":B2_6" function="internal">
        <lane id=":B2_6_0" index="0" speed="6.73" length="9.57" shape="9.88,466.49 12.45,466.12 14.30,465.00 15.44,463.14 15.85,460.55"/>
    </edge>
    <edge id=":B2_7" function="internal">
        <lane id=":B2_7_0" index="0" speed="13.89" length="27.47" shape="9.89,469.69 37.36,469.70"/>
    </edge>
    <edge id=":B2_8" function="internal">
        <lane id=":B2_8_0" index="0" speed="10.35" length="24.62" shape="9.90,472.89 16.59,473.83 21.35,476.68 24.19,481.45 25.11,488.15"/>
    </edge>
    <edge id=":B2_9" function="internal">
        <lane id=":B2_9_0" index="0" speed="6.49" length="9.03" shape="15.51,488.09 15.17,485.64 14.13,483.88 12.38,482.84 9.93,482.49"/>
    </edge>
    <edge id=":B2_10" function="internal">
        <lane id=":B2_10_0" index="0" speed="13.89" length="27.50" shape="18.71,488.11 19.05,460.61"/>
    </edge>
    <edge id=":B2_11" function="internal">
        <lane id=":B2_11_0" index="0" speed="10.41" length="24.72" shape="21.91,488.13 22.91,481.44 25.81,476.68 30.63,473.83 37.35,472.90"/>
    </edge>
    <edge id=":C0_0" function="internal">
        <lane id=":C0_0_0" index="0" speed="6.60" length="9.27" shape="389.45,-247.04 389.08,-249.53 387.99,-251.31 386.17,-252.38 383.64,-252.75"/>
    </edge>
    <edge id=":C0_1" function="internal">
        <lane id=":C0_1_0" index="0" speed="13.89" length="27.33" shape="392.65,-247.05 392.46,-274.38"/>
    </edge>
    <edge id=":C0_2" function="internal">
        <lane id=":C0_2_0" index="0" speed="10.36" length="24.55" shape="395.85,-247.06 396.78,-253.73 399.62,-258.49 404.37,-261.35 411.03,-262.31"/>
    </edge>
    <edge id=":C0_3" function="internal">
        <lane id=":C0_3_0" index="0" speed="6.50" length="9.03" shape="411.03,-252.71 408.58,-252.36 406.84,-251.30 405.79,-249.55 405.45,-247.10"/>
    </edge>
    <edge id=":C0_4" function="internal">
        <lane id=":C0_4_0" index="0" speed="13.89" length="27.38" shape="411.03,-255.91 383.65,-255.95"/>
    </edge>
    <edge id=":C0_5" function="internal">
        <lane id=":C0_5_0" index="0" speed="10.44" length="24.69" shape="411.03,-259.11 404.36,-260.06 399.58,-262.93 396.68,-267.71 395.66,-274.41"/>
    </edge>
    <edge id=":C0_6" function="internal">
        <lane id=":C0_6_0" index="0" speed="6.62" length="9.31" shape="405.26,-274.51 405.64,-271.97 406.73,-270.16 408.53,-269.07 411.03,-268.71"/>
    </edge>
    <edge id=":C0_7" function="internal">
        <lane id=":C0_7_0" index="0" speed="13.89" length="27.39" shape="402.06,-274.48 402.25,-247.09"/>
    </edge>
    <edge id=":C0_8" function="internal">
        <lane id=":C0_8_0" index="0" speed="10.34" length="24.67" shape="398.86,-274.45 397.97,-267.73 395.14,-262.95 390.37,-260.08 383.66,-259.15"/>
    </edge>
    <edge id=":C0_9" function="internal">
        <lane id=":C0_9_0" index="0" speed="6.48" length="9.03" shape="383.70,-268.75 386.15,-269.09 387.90,-270.14 388.93,-271.89 389.26,-274.35"/>
    </edge>
    <edge id=":C0_10" function="internal">
        <lane id=":C0_10_0" index="0" speed="13.89" length="27.34" shape="383.68,-265.55 411.03,-265.51"/>
    </edge>
    <edge id=":C0_11" function="internal">
        <lane id=":C0_11_0" index="0" speed="10.42" length="24.67" shape="383.67,-262.35 390.38,-261.37 395.18,-258.50 398.07,-253.74 399.05,-247.08"/>
    </edge>
    <edge id=":C1_0" function="internal">
        <lane id=":C1_0_0" index="0" speed="6.66" length="9.38" shape="412.31,122.57 409.81,122.93 408.01,124.04 406.91,125.88 406.51,128.45"/>
    </edge>
    <edge id=":C1_1" function="internal">
        <lane id=":C1_1_0" index="0" speed="13.89" length="27.31" shape="412.31,119.37 385.00,119.30"/>
    </edge>
    <edge id=":C1_2" function="internal">
        <lane id=":C1_2_0" index="0" speed="10.39" length="24.55" shape="412.32,116.17 405.69,115.21 400.95,112.34 398.09,107.57 397.12,100.89"/>
    </edge>
    <edge id=":C1_3" function="internal">
        <lane id=":C1_3_0" index="0" speed="6.55" length="9.13" shape="406.72,100.85 407.08,103.35 408.13,105.14 409.88,106.21 412.33,106.57"/>
    </edge>
    <edge id=":C1_4" function="internal">
        <lane id=":C1_4_0" index="0" speed="13.89" length="27.53" shape="403.52,100.87 403.31,128.39"/>
    </edge>
    <edge id=":C1_5" function="internal">
        <lane id=":C1_5_0" index="0" speed="10.37" length="24.66" shape="400.32,100.88 399.38,107.56 396.52,112.32 391.73,115.17 385.01,116.10"/>
    </edge>
    <edge id=":C1_6" function="internal">
        <lane id=":C1_6_0" index="0" speed="6.51" length="9.10" shape="385.04,106.50 387.54,106.16 389.31,105.12 390.37,103.37 390.72,100.91"/>
    </edge>
    <edge id=":C1_7" function="internal">
        <lane id=":C1_7_0" index="0" speed="13.89" length="27.29" shape="385.03,109.70 412.33,109.77"/>
    </edge>
    <edge id=":C1_8" function="internal">
        <lane id=":C1_8_0" index="0" speed="10.34" length="24.69" shape="385.02,112.90 391.73,113.89 396.48,116.79 399.27,121.60 400.11,128.33"/>
    </edge>
    <edge id=":C1_9" function="internal">
        <lane id=":C1_9_0" index="0" speed="6.47" length="9.03" shape="390.51,128.15 390.20,125.69 389.18,123.92 387.45,122.86 384.99,122.50"/>
    </edge>
    <edge id=":C1_10" function="internal">
        <lane id=":C1_10_0" index="0" speed="13.89" length="27.31" shape="393.71,128.21 393.92,100.90"/>
    </edge>
    <edge id=":C1_11" function="internal">
        <lane id=":C1_11_0" index="0" speed="10.46" length="24.67" shape="396.91,128.27 397.98,121.57 400.91,116.78 405.69,113.92 412.32,112.97"/>
    </edge>
    <edge id=":C2_0" function="internal">
        <lane id=":C2_0_0" index="0" speed="6.56" length="9.14" shape="383.95,489.37 383.59,486.87 382.54,485.08 380.79,484.00 378.34,483.63"/>
    </edge>
    <edge id=":C2_1" function="internal">
        <lane id=":C2_1_0" index="0" speed="13.89" length="27.54" shape="387.15,489.36 387.35,461.82"/>
    </edge>
    <edge id=":C2_2" function="internal">
        <lane id=":C2_2_0" index="0" speed="10.37" length="24.67" shape="390.35,489.34 391.28,482.66 394.15,477.90 398.94,475.04 405.67,474.09"/>
    </edge>
    <edge id=":C2_3" function="internal">
        <lane id=":C2_3_0" index="0" speed="6.53" length="9.13" shape="405.66,483.69 403.15,484.04 401.37,485.09 400.30,486.84 399.95,489.30"/>
    </edge>
    <edge id=":C2_4" function="internal">
        <lane id=":C2_4_0" index="0" speed="13.89" length="27.31" shape="405.66,480.49 378.35,480.43"/>
    </edge>
    <edge id=":C2_5" function="internal">
        <lane id=":C2_5_0" index="0" speed="10.34" length="24.72" shape="405.66,477.29 398.94,476.32 394.18,473.43 391.39,468.62 390.55,461.88"/>
    </edge>
    <edge id=":C2_6" function="internal">
        <lane id=":C2_6_0" index="0" speed="6.47" length="9.03" shape="400.15,462.06 400.46,464.52 401.48,466.28 403.22,467.34 405.67,467.69"/>
    </edge>
    <edge id=":C2_7" function="internal">
        <lane id=":C2_7_0" index="0" speed="13.89" length="27.31" shape="396.95,462.00 396.75,489.31"/>
    </edge>
    <edge id=":C2_8" function="internal">
        <lane id=":C2_8_0" index="0" speed="10.45" length="24.66" shape="393.75,461.94 392.68,468.65 389.76,473.44 384.98,476.30 378.36,477.23"/>
    </edge>
    <edge id=":C2_9" function="internal">
        <lane id=":C2_9_0" index="0" speed="6.65" length="9.35" shape="378.39,467.63 380.87,467.27 382.66,466.17 383.75,464.33 384.15,461.76"/>
    </edge>
    <edge id=":C2_10" function="internal">
        <lane id=":C2_10_0" index="0" speed="13.89" length="27.29" shape="378.38,470.83 405.67,470.89"/>
    </edge>
    <edge id=":C2_11" function="internal">
        <lane id=":C2_11_0" index="0" speed="10.40" length="24.53" shape="378.37,474.03 384.99,475.01 389.72,477.88 392.58,482.66 393.55,489.33"/>
    </edge>

    <edge id="-E10" from="J10" to="B0" priority="-1">
        <lane id="-E10_0" index="0" speed="13.89" length="146.36" shape="37.37,-421.86 37.12,-275.50"/>
        <lane id="-E10_1" index="1" speed="13.89" length="146.36" shape="34.17,-421.86 33.92,-275.51"/>
        <lane id="-E10_2" index="2" speed="13.89" length="146.36" shape="30.97,-421.87 30.72,-275.51"/>
    </edge>
    <edge id="-E11" from="J11" to="A0" priority="-1">
        <lane id="-E11_0" index="0" speed="13.89" length="150.51" shape="-341.52,-424.82 -345.58,-274.37"/>
        <lane id="-E11_1" index="1" speed="13.89" length="150.51" shape="-344.72,-424.91 -348.78,-274.46"/>
        <lane id="-E11_2" index="2" speed="13.89" length="150.51" shape="-347.92,-425.00 -351.98,-274.55"/>
    </edge>
    <edge id="-E12" from="J12" to="A0" priority="-1">
        <lane id="-E12_0" index="0" speed="13.89" length="196.68" shape="-563.97,-271.30 -367.31,-268.87"/>
        <lane id="-E12_1" index="1" speed="13.89" length="196.68" shape="-564.01,-268.10 -367.35,-265.67"/>
        <lane id="-E12_2" index="2" speed="13.89" length="196.68" shape="-564.05,-264.90 -367.39,-262.47"/>
    </edge>
    <edge id="-E13" from="J13" to="A1" priority="-1">
        <lane id="-E13_0" index="0" speed="13.89" length="195.24" shape="-561.59,106.40 -366.35,106.54"/>
        <lane id="-E13_1" index="1" speed="13.89" length="195.24" shape="-561.60,109.60 -366.35,109.74"/>
        <lane id="-E13_2" index="2" speed="13.89" length="195.24" shape="-561.60,112.80 -366.36,112.94"/>
    </edge>
    <edge id="-E14" from="J14" to="A2" priority="-1">
        <lane id="-E14_0" index="0" speed="13.89" length="195.52" shape="-568.40,465.57 -372.89,467.54"/>
        <lane id="-E14_1" index="1" speed="13.89" length="195.52" shape="-568.43,468.77 -372.93,470.74"/>
        <lane id="-E14_2" index="2" speed="13.89" length="195.52" shape="-568.46,471.97 -372.96,473.94"/>
    </edge>
    <edge id="-E8" from="J8" to="C0" priority="-1">
        <lane id="-E8_0" index="0" speed="13.89" length="149.52" shape="403.72,-424.02 405.26,-274.51"/>
        <lane id="-E8_1" index="1" speed="13.89" length="149.52" shape="400.52,-423.99 402.06,-274.48"/>
        <lane id="-E8_2" index="2" speed="13.89" length="149.52" shape="397.32,-423.96 398.86,-274.45"/>
    </edge>
    <edge id="A0A1" from="A0" to="A1" priority="-1">
        <lane id="A0A1_0" index="0" speed="13.89" length="348.01" shape="-345.90,-247.13 -344.63,100.88"/>
        <lane id="A0A1_1" index="1" speed="13.89" length="348.01" shape="-349.10,-247.11 -347.83,100.89"/>
        <lane id="A0A1_2" index="2" speed="13.89" length="348.01" shape="-352.30,-247.10 -351.03,100.90"/>
    </edge>
    <edge id="A0B0" from="A0" to="B0" priority="-1">
        <lane id="A0B0_0" index="0" speed="13.89" length="355.56" shape="-340.08,-268.74 15.48,-269.89"/>
        <lane id="A0B0_1" index="1" speed="13.89" length="355.56" shape="-340.07,-265.54 15.49,-266.69"/>
        <lane id="A0B0_2" index="2" speed="13.89" length="355.56" shape="-340.06,-262.34 15.50,-263.49"/>
    </edge>
    <edge id="A1A0" from="A1" to="A0" priority="-1">
        <lane id="A1A0_0" index="0" speed="13.89" length="348.01" shape="-360.63,100.94 -361.90,-247.07"/>
        <lane id="A1A0_1" index="1" speed="13.89" length="348.01" shape="-357.43,100.93 -358.70,-247.08"/>
        <lane id="A1A0_2" index="2" speed="13.89" length="348.01" shape="-354.23,100.91 -355.50,-247.09"/>
    </edge>
    <edge id="A1A2" from="A1" to="A2" priority="-1">
        <lane id="A1A2_0" index="0" speed="13.89" length="333.60" shape="-344.84,128.48 -351.20,462.02"/>
        <lane id="A1A2_1" index="1" speed="13.89" length="333.60" shape="-348.04,128.42 -354.40,461.96"/>
        <lane id="A1A2_2" index="2" speed="13.89" length="333.60" shape="-351.24,128.36 -357.60,461.90"/>
    </edge>
    <edge id="A1B1" from="A1" to="B1" priority="-1">
        <lane id="A1B1_0" index="0" speed="13.89" length="355.64" shape="-339.01,106.51 16.63,105.36"/>
        <lane id="A1B1_1" index="1" speed="13.89" length="355.64" shape="-339.00,109.71 16.64,108.56"/>
        <lane id="A1B1_2" index="2" speed="13.89" length="355.64" shape="-338.99,112.91 16.65,111.76"/>
    </edge>
    <edge id="A2A1" from="A2" to="A1" priority="-1">
        <lane id="A2A1_0" index="0" speed="13.89" length="333.60" shape="-367.20,461.71 -360.84,128.17"/>
        <lane id="A2A1_1" index="1" speed="13.89" length="333.60" shape="-364.00,461.77 -357.64,128.23"/>
        <lane id="A2A1_2" index="2" speed="13.89" length="333.60" shape="-360.80,461.84 -354.44,128.29"/>
    </edge>
    <edge id="A2A3" from="A2" to="A3" priority="-1">
        <lane id="A2A3_0" index="0" speed="13.89" length="268.53" shape="-351.47,489.25 -351.58,757.78"/>
        <lane id="A2A3_1" index="1" speed="13.89" length="268.53" shape="-354.67,489.25 -354.78,757.78"/>
        <lane id="A2A3_2" index="2" speed="13.89" length="268.53" shape="-357.87,489.25 -357.98,757.78"/>
    </edge>
    <edge id="A2B2" from="A2" to="B2" priority="-1">
        <lane id="A2B2_0" index="0" speed="13.89" length="355.55" shape="-345.67,467.64 9.88,466.49"/>
        <lane id="A2B2_1" index="1" speed="13.89" length="355.55" shape="-345.66,470.84 9.89,469.69"/>
        <lane id="A2B2_2" index="2" speed="13.89" length="355.55" shape="-345.65,474.04 9.90,472.89"/>
    </edge>
    <edge id="A3A2" from="A3" to="A2" priority="-1">
        <lane id="A3A2_0" index="0" speed="13.89" length="268.53" shape="-367.58,757.78 -367.47,489.24"/>
        <lane id="A3A2_1" index="1" speed="13.89" length="268.53" shape="-364.38,757.78 -364.27,489.24"/>
        <lane id="A3A2_2" index="2" speed="13.89" length="268.53" shape="-361.18,757.78 -361.07,489.24"/>
    </edge>
    <edge id="B0A0" from="B0" to="A0" priority="-1">
        <lane id="B0A0_0" index="0" speed="13.89" length="355.56" shape="15.53,-253.89 -340.03,-252.74"/>
        <lane id="B0A0_1" index="1" speed="13.89" length="355.56" shape="15.52,-257.09 -340.04,-255.94"/>
        <lane id="B0A0_2" index="2" speed="13.89" length="355.56" shape="15.51,-260.29 -340.05,-259.14"/>
    </edge>
    <edge id="B0B1" from="B0" to="B1" priority="-1">
        <lane id="B0B1_0" index="0" speed="13.89" length="347.98" shape="37.15,-248.29 38.42,99.69"/>
        <lane id="B0B1_1" index="1" speed="13.89" length="347.98" shape="33.95,-248.28 35.22,99.70"/>
        <lane id="B0B1_2" index="2" speed="13.89" length="347.98" shape="30.75,-248.27 32.02,99.71"/>
    </edge>
    <edge id="B0C0" from="B0" to="C0" priority="-1">
        <lane id="B0C0_0" index="0" speed="13.89" length="340.90" shape="42.79,-269.88 383.70,-268.75"/>
        <lane id="B0C0_1" index="1" speed="13.89" length="340.90" shape="42.78,-266.68 383.68,-265.55"/>
        <lane id="B0C0_2" index="2" speed="13.89" length="340.90" shape="42.77,-263.48 383.67,-262.35"/>
    </edge>
    <edge id="B1A1" from="B1" to="A1" priority="-1">
        <lane id="B1A1_0" index="0" speed="13.89" length="355.64" shape="16.68,121.36 -338.96,122.51"/>
        <lane id="B1A1_1" index="1" speed="13.89" length="355.64" shape="16.67,118.16 -338.97,119.31"/>
        <lane id="B1A1_2" index="2" speed="13.89" length="355.64" shape="16.66,114.96 -338.98,116.11"/>
    </edge>
    <edge id="B1B0" from="B1" to="B0" priority="-1">
        <lane id="B1B0_0" index="0" speed="13.89" length="347.98" shape="22.42,99.75 21.15,-248.23"/>
        <lane id="B1B0_1" index="1" speed="13.89" length="347.98" shape="25.62,99.73 24.35,-248.25"/>
        <lane id="B1B0_2" index="2" speed="13.89" length="347.98" shape="28.82,99.72 27.55,-248.26"/>
    </edge>
    <edge id="B1B2" from="B1" to="B2" priority="-1">
        <lane id="B1B2_0" index="0" speed="13.89" length="333.63" shape="38.21,127.29 31.85,460.85"/>
        <lane id="B1B2_1" index="1" speed="13.89" length="333.63" shape="35.01,127.23 28.65,460.79"/>
        <lane id="B1B2_2" index="2" speed="13.89" length="333.63" shape="31.81,127.16 25.45,460.73"/>
    </edge>
    <edge id="B1C1" from="B1" to="C1" priority="-1">