<?xml version="1.0" encoding="UTF-8"?>

<!-- generated on 2026-03-30 17:33:03.136653 by Eclipse SUMO randomTrips.py v1.26.0
<configuration>
    <net-file value="grid_3_3_intelligent_tls.net.xml"/>
    <route-file value="grid_3_3_intelligent_tls.rou.xml"/>
    <trip-attributes value="type=&quot;DEFAULT_VEHTYPE&quot;"/>
    <lanes value="True"/>
    <fringe-factor value="100"/>
    <random value="True"/>
    <min-distance value="1100.0"/>
    <maxtries value="250"/>
    <period value="1.5"/>
    <flows value="120"/>
</configuration>
-->

<routes xmlns:xsi="http://www.w3.org/2001/XMLSchema-instance" xsi:noNamespaceSchemaLocation="http://sumo.dlr.de/xsd/routes_file.xsd">
    <flow id="0" begin="0" end="3600" period="180" from="A3A2" to="E11" type="DEFAULT_VEHTYPE"/>
    <flow id="1" begin="0" end="3600" period="180" from="D1C1" to="E14" type="DEFAULT_VEHTYPE"/>
    <flow id="2" begin="0" end="3600" period="180" from="-E14" to="C0D0" type="DEFAULT_VEHTYPE"/>
    <flow id="3" begin="0" end="3600" period="180" from="-E11" to="A2A3" type="DEFAULT_VEHTYPE"/>
    <flow id="4" begin="0" end="3600" period="180" from="C3C2" to="E12" type="DEFAULT_VEHTYPE"/>
    <flow id="5" begin="0" end="3600" period="180" from="-E11" to="B2B3" type="DEFAULT_VEHTYPE"/>
    <flow id="6" begin="0" end="3600" period="180" from="-E10" to="C2D2" type="DEFAULT_VEHTYPE"/>
    <flow id="7" begin="0" end="3600" period="180" from="-E14" to="E8" type="DEFAULT_VEHTYPE"/>
    <flow id="8" begin="0" end="3600" period="180" from="-E13" to="C0D0" type="DEFAULT_VEHTYPE"/>
    <flow id="9" begin="0" end="3600" period="180" from="A3A2" to="E8" type="DEFAULT_VEHTYPE"/>
    <flow id="10" begin="0" end="3600" period="180" from="D1C1" to="A2A3" type="DEFAULT_VEHTYPE"/>
    <flow id="11" begin="0" end="3600" period="180" from="A3A2" to="E11" type="DEFAULT_VEHTYPE"/>
    <flow id="12" begin="0" end="3600" period="180" from="-E14" to="C2D2" type="DEFAULT_VEHTYPE"/>
    <flow id="13" begin="0" end="3600" period="180" from="-E12" to="C2D2" type="DEFAULT_VEHTYPE"/>
    <flow id="14" begin="0" end="3600" period="180" from="B3B2" to="C0D0" type="DEFAULT_VEHTYPE"/>
    <flow id="15" begin="0" end="3600" period="180" from="D0C0" to="B2B3" type="DEFAULT_VEHTYPE"/>
    <flow id="16" begin="0" end="3600" period="180" from="-E11" to="C2C3" type="DEFAULT_VEHTYPE"/>
    <flow id="17" begin="0" end="3600" period="180" from="-E8" to="B2B3" type="DEFAULT_VEHTYPE"/>
    <flow id="18" begin="0" end="3600" period="180" from="B3B2" to="E8" type="DEFAULT_VEHTYPE"/>
    <flow id="19" begin="0" end="3600" period="180" from="C3C2" to="E10" type="DEFAULT_VEHTYPE"/>
    <flow id="20" begin="0" end="3600" period="180" from="D0C0" to="A2A3" type="DEFAULT_VEHTYPE"/>
    <flow id="21" begin="0" end="3600" period="180" from="A3A2" to="C0D0" type="DEFAULT_VEHTYPE"/>
    <flow id="22" begin="0" end="3600" period="180" from="D2C2" to="E14" type="DEFAULT_VEHTYPE"/>
    <flow id="23" begin="0" end="3600" period="180" from="-E12" to="C2D2" type="DEFAULT_VEHTYPE"/>
    <flow id="24" begin="0" end="3600" period="180" from="-E10" to="C2D2" type="DEFAULT_VEHTYPE"/>
    <flow id="25" begin="0" end="3600" period="180" from="-E11" to="C1D1" type="DEFAULT_VEHTYPE"/>
    <flow id="26" begin="0" end="3600" period="180" from="-E13" to="C2D2" type="DEFAULT_VEHTYPE"/>
    <flow id="27" begin="0" end="3600" period="180" from="-E10" to="A2A3" type="DEFAULT_VEHTYPE"/>
    <flow id="28" begin="0" end="3600" period="180" from="D1C1" to="E13" type="DEFAULT_VEHTYPE"/>
    <flow id="29" begin="0" end="3600" period="180" from="-E10" to="C2C3" type="DEFAULT_VEHTYPE"/>
    <flow id="30" begin="0" end="3600" period="180" from="-E8" to="A2A3" type="DEFAULT_VEHTYPE"/>
    <flow id="31" begin="0" end="3600" period="180" from="B3B2" to="E8" type="DEFAULT_VEHTYPE"/>
    <flow id="32" begin="0" end="3600" period="180" from="B3B2" to="E8" type="DEFAULT_VEHTYPE"/>
    <flow id="33" begin="0" end="3600" period="180" from="-E8" to="A2A3" type="DEFAULT_VEHTYPE"/>
    <flow id="34" begin="0" end="3600" period="180" from="-E11" to="A2A3" type="DEFAULT_VEHTYPE"/>
    <flow id="35" begin="0" end="3600" period="180" from="-E14" to="E8" type="DEFAULT_VEHTYPE"/>
    <flow id="36" begin="0" end="3600" period="180" from="A3A2" to="E10" type="DEFAULT_VEHTYPE"/>
    <flow id="37" begin="0" end="3600" period="180" from="-E14" to="C1D1" type="DEFAULT_VEHTYPE"/>
    <flow id="38" begin="0" end="3600" period="180" from="C3C2" to="E11" type="DEFAULT_VEHTYPE"/>
    <flow id="39" begin="0" end="3600" period="180" from="-E11" to="A2A3" type="DEFAULT_VEHTYPE"/>
    <flow id="40" begin="0" end="3600" period="180" from="-E14" to="C1D1" type="DEFAULT_VEHTYPE"/>
    <flow id="41" begin="0" end="3600" period="180" from="C3C2" to="C0D0" type="DEFAULT_VEHTYPE"/>
    <flow id="42" begin="0" end="3600" period="180" from="B3B2" to="E10" type="DEFAULT_VEHTYPE"/>
    <flow id="43" begin="0" end="3600" period="180" from="C3C2" to="E8" type="DEFAULT_VEHTYPE"/>
    <flow id="44" begin="0" end="3600" period="180" from="-E11" to="B2B3" type="DEFAULT_VEHTYPE"/>
    <flow id="45" begin="0" end="3600" period="180" from="C3C2" to="E10" type="DEFAULT_VEHTYPE"/>
    <flow id="46" begin="0" end="3600" period="180" from="-E11" to="A2A3" type="DEFAULT_VEHTYPE"/>
    <flow id="47" begin="0" end="3600" period="180" from="B3B2" to="E11" type="DEFAULT_VEHTYPE"/>
    <flow id="48" begin="0" end="3600" period="180" from="-E10" to="A2A3" type="DEFAULT_VEHTYPE"/>
    <flow id="49" begin="0" end="3600" period="180" from="D0C0" to="A2A3" type="DEFAULT_VEHTYPE"/>
    <flow id="50" begin="0" end="3600" period="180" from="-E13" to="C1D1" type="DEFAULT_VEHTYPE"/>
    <flow id="51" begin="0" end="3600" period="180" from="C3C2" to="E10" type="DEFAULT_VEHTYPE"/>
    <flow id="52" begin="0" end="3600" period="180" from="D1C1" to="E11" type="DEFAULT_VEHTYPE"/>
    <flow id="53" begin="0" end="3600" period="180" from="-E11" to="C2C3" type="DEFAULT_VEHTYPE"/>
    <flow id="54" begin="0" end="3600" period="180" from="-E14" to="E8" type="DEFAULT_VEHTYPE"/>
    <flow id="55" begin="0" end="3600" period="180" from="A3A2" to="C2D2" type="DEFAULT_VEHTYPE"/>
    <flow id="56" begin="0" end="3600" period="180" from="D1C1" to="E12" type="DEFAULT_VEHTYPE"/>
    <flow id="57" begin="0" end="3600" period="180" from="-E11" to="B2B3" type="DEFAULT_VEHTYPE"/>
    <flow id="58" begin="0" end="3600" period="180" from="D2C2" to="E14" type="DEFAULT_VEHTYPE"/>
    <flow id="59" begin="0" end="3600" period="180" from="-E13" to="C0D0" type="DEFAULT_VEHTYPE"/>
    <flow id="60" begin="0" end="3600" period="180" from="-E14" to="C1D1" type="DEFAULT_VEHTYPE"/>
    <flow id="61" begin="0" end="3600" period="180" from="-E11" to="C1D1" type="DEFAULT_VEHTYPE"/>
    <flow id="62" begin="0" end="3600" period="180" from="B3B2" to="C0D0" type="DEFAULT_VEHTYPE"/>
    <flow id="63" begin="0" end="3600" period="180" from="D0C0" to="E12" type="DEFAULT_VEHTYPE"/>
    <flow id="64" begin="0" end="3600" period="180" from="D1C1" to="E11" type="DEFAULT_VEHTYPE"/>
    <flow id="65" begin="0" end="3600" period="180" from="-E12" to="B2B3" type="DEFAULT_VEHTYPE"/>
    <flow id="66" begin="0" end="3600" period="180" from="A3A2" to="E10" type="DEFAULT_VEHTYPE"/>
    <flow id="67" begin="0" end="3600" period="180" from="C3C2" to="E8" type="DEFAULT_VEHTYPE"/>
    <flow id="68" begin="0" end="3600" period="180" from="B3B2" to="E12" type="DEFAULT_VEHTYPE"/>
    <flow id="69" begin="0" end="3600" period="180" from="D0C0" to="B2B3" type="DEFAULT_VEHTYPE"/>
    <flow id="70" begin="0" end="3600" period="180" from="-E12" to="C2C3" type="DEFAULT_VEHTYPE"/>
    <flow id="71" begin="0" end="3600" period="180" from="D0C0" to="E13" type="DEFAULT_VEHTYPE"/>
    <flow id="72" begin="0" end="3600" period="180" from="D1C1" to="E12" type="DEFAULT_VEHTYPE"/>
    <flow id="73" begin="0" end="3600" period="180" from="A3A2" to="E10" type="DEFAULT_VEHTYPE"/>
    <flow id="74" begin="0" end="3600" period="180" from="C3C2" to="E12" type="DEFAULT_VEHTYPE"/>
    <flow id="75" begin="0" end="3600" period="180" from="D0C0" to="C2C3" type="DEFAULT_VEHTYPE"/>
    <flow id="76" begin="0" end="3600" period="180" from="C3C2" to="E12" type="DEFAULT_VEHTYPE"/>
    <flow id="77" begin="0" end="3600" period="180" from="D2C2" to="E13" type="DEFAULT_VEHTYPE"/>
    <flow id="78" begin="0" end="3600" period="180" from="-E11" to="C2D2" type="DEFAULT_VEHTYPE"/>
    <flow id="79" begin="0" end="3600" period="180" from="C3C2" to="C0D0" type="DEFAULT_VEHTYPE"/>
    <flow id="80" begin="0" end="3600" period="180" from="A3A2" to="E10" type="DEFAULT_VEHTYPE"/>
    <flow id="81" begin="0" end="3600" period="180" from="-E8" to="B2B3" type="DEFAULT_VEHTYPE"/>
    <flow id="82" begin="0" end="3600" period="180" from="A3A2" to="C2D2" type="DEFAULT_VEHTYPE"/>
    <flow id="83" begin="0" end="3600" period="180" from="D2C2" to="E13" type="DEFAULT_VEHTYPE"/>
    <flow id="84" begin="0" end="3600" period="180" from="-E13" to="C0D0" type="DEFAULT_VEHTYPE"/>
    <flow id="85" begin="0" end="3600" period="180" from="-E12" to="C0D0" type="DEFAULT_VEHTYPE"/>
    <flow id="86" begin="0" end="3600" period="180" from="-E14" to="C2D2" type="DEFAULT_VEHTYPE"/>
    <flow id="87" begin="0" end="3600" period="180" from="-E12" to="C1D1" type="DEFAULT_VEHTYPE"/>
    <flow id="88" begin="0" end="3600" period="180" from="-E13" to="C0D0" type="DEFAULT_VEHTYPE"/>
    <flow id="89" begin="0" end="3600" period="180" from="-E11" to="C0D0" type="DEFAULT_VEHTYPE"/>
    <flow id="90" begin="0" end="3600" period="180" from="B3B2" to="E8" type="DEFAULT_VEHTYPE"/>
    <flow id="91" begin="0" end="3600" period="180" from="D0C0" to="E14" type="DEFAULT_VEHTYPE"/>
    <flow id="92" begin="0" end="3600" period="180" from="D1C1" to="E11" type="DEFAULT_VEHTYPE"/>
    <flow id="93" begin="0" end="3600" period="180" from="D2C2" to="A2A3" type="DEFAULT_VEHTYPE"/>
    <flow id="94" begin="0" end="3600" period="180" from="-E13" to="C1D1" type="DEFAULT_VEHTYPE"/>
    <flow id="95" begin="0" end="3600" period="180" from="-E11" to="C0D0" type="DEFAULT_VEHTYPE"/>
    <flow id="96" begin="0" end="3600" period="180" from="B3B2" to="E11" type="DEFAULT_VEHTYPE"/>
    <flow id="97" begin="0" end="3600" period="180" from="-E8" to="E14" type="DEFAULT_VEHTYPE"/>
    <flow id="98" begin="0" end="3600" period="180" from="A3A2" to="E11" type="DEFAULT_VEHTYPE"/>
    <flow id="99" begin="0" end="3600" period="180" from="-E12" to="C2C3" type="DEFAULT_VEHTYPE"/>
    <flow id="100" begin="0" end="3600" period="180" from="-E13" to="C2D2" type="DEFAULT_VEHTYPE"/>
    <flow id="101" begin="0" end="3600" period="180" from="-E12" to="C2D2" type="DEFAULT_VEHTYPE"/>
    <flow id="102" begin="0" end="3600" period="180" from="A3A2" to="C0D0" type="DEFAULT_VEHTYPE"/>
    <flow id="103" begin="0" end="3600" period="180" from="-E13" to="C1D1" type="DEFAULT_VEHTYPE"/>
    <flow id="104" begin="0" end="3600" period="180" from="-E14" to="C0D0" type="DEFAULT_VEHTYPE"/>
    <flow id="105" begin="0" end="3600" period="180" from="-E13" to="C2D2" type="DEFAULT_VEHTYPE"/>
    <flow id="106" begin="0" end="3600" period="180" from="D2C2" to="E14" type="DEFAULT_VEHTYPE"/>
    <flow id="107" begin="0" end="3600" period="180" from="B3B2" to="E10" type="DEFAULT_VEHTYPE"/>
    <flow id="108" begin="0" end="3600" period="180" from="-E10" to="C2C3" type="DEFAULT_VEHTYPE"/>
    <flow id="109" begin="0" end="3600" period="180" from="-E13" to="C2D2" type="DEFAULT_VEHTYPE"/>
    <flow id="110" begin="0" end="3600" period="180" from="-E8" to="C2C3" type="DEFAULT_VEHTYPE"/>
    <flow id="111" begin="0" end="3600" period="180" from="-E14" to="E8" type="DEFAULT_VEHTYPE"/>
    <flow id="112" begin="0" end="3600" period="180" from="A3A2" to="E11" type="DEFAULT_VEHTYPE"/>
    <flow id="113" begin="0" end="3600" period="180" from="A3A2" to="C1D1" type="DEFAULT_VEHTYPE"/>
    <flow id="114" begin="0" end="3600" period="180" from="-E8" to="B2B3" type="DEFAULT_VEHTYPE"/>
    <flow id="115" begin="0" end="3600" period="180" from="D1C1" to="E11" type="DEFAULT_VEHTYPE"/>
    <flow id="116" begin="0" end="3600" period="180" from="B3B2" to="C0D0" type="DEFAULT_VEHTYPE"/>
    <flow id="117" begin="0" end="3600" period="180" from="-E13" to="C0D0" type="DEFAULT_VEHTYPE"/>
    <flow id="118" begin="0" end="3600" period="180" from="D0C0" to="C2C3" type="DEFAULT_VEHTYPE"/>
    <flow id="119" begin="0" end="3600" period="180" from="C3C2" to="E11" type="DEFAULT_VEHTYPE"/>
</routes>
